Global frequency set at 1000000000000 ticks per second
Redirecting stdout to /proj/snic2022-22-557/rashid/results/1cores/L2_TLB_v23/cactuBSSN/simout
Redirecting stderr to /proj/snic2022-22-557/rashid/results/1cores/L2_TLB_v23/cactuBSSN/simerr
gem5 Simulator System.  https://www.gem5.org
gem5 is copyrighted software; use the --copyright option for details.

gem5 version 23.0.1.0
gem5 compiled Apr 22 2024 16:55:55
gem5 started Apr 22 2024 17:51:41
gem5 executing on r264.uppmax.uu.se, pid 15675
command line: /proj/snic2022-22-557/rashid/L2_TLB_v23/build/X86/gem5.fast --outdir=/proj/snic2022-22-557/rashid/results/1cores/L2_TLB_v23/cactuBSSN --redirect-stdout --redirect-stderr /proj/snic2022-22-557/rashid/L2_TLB_v23/configs/deprecated/example/fs.py --checkpoint-dir=/proj/snic2022-22-557/rashid/checkpoints/v23/cactuBSSN -r 1 --kernel=/proj/snic2022-22-557/rashid/kernel/vmlinux-5.4.49 --disk-image=/proj/snic2022-22-557/rashid/fs_img/spec17.img --cpu-type=DerivO3CPU --restore-with-cpu=DerivO3CPU --mem-size=8GB --ruby --caches --l1d_size=64kB --l1d_assoc=8 --l1i_size=64kB --l1i_assoc=8 --num-l2caches=1 --num-dirs=1 --topology=Mesh_XY --mesh-rows=1 --l2_size=2MB --l2_assoc=16 --cpu-clock=2GHz --cacheline_size=64 -I 200000000

info: Standard input is not a terminal, disabling listeners.
**** REAL SIMULATION ****
RESET STATS:)
Exiting @ tick 11997222411500 because a thread reached the max instruction count
