
---------- Begin Simulation Statistics ----------
simSeconds                                   0.048072                       # Number of seconds simulated (Second)
simTicks                                  48071764000                       # Number of ticks simulated (Tick)
finalTick                                11997222411500                       # Number of ticks from beginning of simulation (restored from checkpoints and never reset) (Tick)
simFreq                                  1000000000000                       # The number of ticks per simulated second ((Tick/Second))
hostSeconds                                   1005.94                       # Real time elapsed on the host (Second)
hostTickRate                                 47787914                       # The number of ticks simulated per host second (ticks/s) ((Tick/Second))
hostMemory                                    9899644                       # Number of bytes of host memory used (Byte)
simInsts                                    200000004                       # Number of instructions simulated (Count)
simOps                                      302359584                       # Number of ops (including micro ops) simulated (Count)
hostInstRate                                   198819                       # Simulator instruction rate (inst/s) ((Count/Second))
hostOpRate                                     300574                       # Simulator op (including micro ops) rate (op/s) ((Count/Second))
system.clk_domain.clock                          1000                       # Clock period in ticks (Tick)
system.cpu.numCycles                         96143528                       # Number of cpu cycles simulated (Cycle)
system.cpu.cpi                               0.480718                       # CPI: cycles per instruction (core level) ((Cycle/Count))
system.cpu.ipc                               2.080223                       # IPC: instructions per cycle (core level) ((Count/Cycle))
system.cpu.numWorkItemsStarted                      0                       # Number of work items this cpu started (Count)
system.cpu.numWorkItemsCompleted                    0                       # Number of work items this cpu completed (Count)
system.cpu.instsAdded                       226480357                       # Number of instructions added to the IQ (excludes non-spec) (Count)
system.cpu.nonSpecInstsAdded                     4383                       # Number of non-speculative instructions added to the IQ (Count)
system.cpu.instsIssued                      226439695                       # Number of instructions issued (Count)
system.cpu.squashedInstsIssued                    709                       # Number of squashed instructions issued (Count)
system.cpu.squashedInstsExamined               258433                       # Number of squashed instructions iterated over during squash; mainly for profiling (Count)
system.cpu.squashedOperandsExamined            316828                       # Number of squashed operands that are examined and possibly removed from graph (Count)
system.cpu.squashedNonSpecRemoved                 624                       # Number of squashed non-spec instructions that were removed (Count)
system.cpu.numIssuedDist::samples            95738351                       # Number of insts issued each cycle (Count)
system.cpu.numIssuedDist::mean               2.365193                       # Number of insts issued each cycle (Count)
system.cpu.numIssuedDist::stdev              2.680542                       # Number of insts issued each cycle (Count)
system.cpu.numIssuedDist::underflows                0      0.00%      0.00% # Number of insts issued each cycle (Count)
system.cpu.numIssuedDist::0                  43746304     45.69%     45.69% # Number of insts issued each cycle (Count)
system.cpu.numIssuedDist::1                   5192540      5.42%     51.12% # Number of insts issued each cycle (Count)
system.cpu.numIssuedDist::2                   7358117      7.69%     58.80% # Number of insts issued each cycle (Count)
system.cpu.numIssuedDist::3                   7854514      8.20%     67.01% # Number of insts issued each cycle (Count)
system.cpu.numIssuedDist::4                   7067101      7.38%     74.39% # Number of insts issued each cycle (Count)
system.cpu.numIssuedDist::5                   7332765      7.66%     82.05% # Number of insts issued each cycle (Count)
system.cpu.numIssuedDist::6                   6860034      7.17%     89.21% # Number of insts issued each cycle (Count)
system.cpu.numIssuedDist::7                   5740862      6.00%     95.21% # Number of insts issued each cycle (Count)
system.cpu.numIssuedDist::8                   4586114      4.79%    100.00% # Number of insts issued each cycle (Count)
system.cpu.numIssuedDist::overflows                 0      0.00%    100.00% # Number of insts issued each cycle (Count)
system.cpu.numIssuedDist::min_value                 0                       # Number of insts issued each cycle (Count)
system.cpu.numIssuedDist::max_value                 8                       # Number of insts issued each cycle (Count)
system.cpu.numIssuedDist::total              95738351                       # Number of insts issued each cycle (Count)
system.cpu.statFuBusy::No_OpClass                   0      0.00%      0.00% # attempts to use FU when none available (Count)
system.cpu.statFuBusy::IntAlu                   79977      5.95%      5.95% # attempts to use FU when none available (Count)
system.cpu.statFuBusy::IntMult                      0      0.00%      5.95% # attempts to use FU when none available (Count)
system.cpu.statFuBusy::IntDiv                       0      0.00%      5.95% # attempts to use FU when none available (Count)
system.cpu.statFuBusy::FloatAdd                    13      0.00%      5.95% # attempts to use FU when none available (Count)
system.cpu.statFuBusy::FloatCmp                     0      0.00%      5.95% # attempts to use FU when none available (Count)
system.cpu.statFuBusy::FloatCvt                     0      0.00%      5.95% # attempts to use FU when none available (Count)
system.cpu.statFuBusy::FloatMult                    0      0.00%      5.95% # attempts to use FU when none available (Count)
system.cpu.statFuBusy::FloatMultAcc                 0      0.00%      5.95% # attempts to use FU when none available (Count)
system.cpu.statFuBusy::FloatDiv                     0      0.00%      5.95% # attempts to use FU when none available (Count)
system.cpu.statFuBusy::FloatMisc                    0      0.00%      5.95% # attempts to use FU when none available (Count)
system.cpu.statFuBusy::FloatSqrt                    0      0.00%      5.95% # attempts to use FU when none available (Count)
system.cpu.statFuBusy::SimdAdd                      0      0.00%      5.95% # attempts to use FU when none available (Count)
system.cpu.statFuBusy::SimdAddAcc                   0      0.00%      5.95% # attempts to use FU when none available (Count)
system.cpu.statFuBusy::SimdAlu                 419316     31.21%     37.16% # attempts to use FU when none available (Count)
system.cpu.statFuBusy::SimdCmp                      0      0.00%     37.16% # attempts to use FU when none available (Count)
system.cpu.statFuBusy::SimdCvt                      0      0.00%     37.16% # attempts to use FU when none available (Count)
system.cpu.statFuBusy::SimdMisc                     0      0.00%     37.16% # attempts to use FU when none available (Count)
system.cpu.statFuBusy::SimdMult                     0      0.00%     37.16% # attempts to use FU when none available (Count)
system.cpu.statFuBusy::SimdMultAcc                  0      0.00%     37.16% # attempts to use FU when none available (Count)
system.cpu.statFuBusy::SimdMatMultAcc               0      0.00%     37.16% # attempts to use FU when none available (Count)
system.cpu.statFuBusy::SimdShift                    0      0.00%     37.16% # attempts to use FU when none available (Count)
system.cpu.statFuBusy::SimdShiftAcc                 0      0.00%     37.16% # attempts to use FU when none available (Count)
system.cpu.statFuBusy::SimdDiv                      0      0.00%     37.16% # attempts to use FU when none available (Count)
system.cpu.statFuBusy::SimdSqrt                     0      0.00%     37.16% # attempts to use FU when none available (Count)
system.cpu.statFuBusy::SimdFloatAdd             62767      4.67%     41.83% # attempts to use FU when none available (Count)
system.cpu.statFuBusy::SimdFloatAlu                 0      0.00%     41.83% # attempts to use FU when none available (Count)
system.cpu.statFuBusy::SimdFloatCmp                 0      0.00%     41.83% # attempts to use FU when none available (Count)
system.cpu.statFuBusy::SimdFloatCvt             38657      2.88%     44.71% # attempts to use FU when none available (Count)
system.cpu.statFuBusy::SimdFloatDiv             45386      3.38%     48.09% # attempts to use FU when none available (Count)
system.cpu.statFuBusy::SimdFloatMisc                0      0.00%     48.09% # attempts to use FU when none available (Count)
system.cpu.statFuBusy::SimdFloatMult           476070     35.43%     83.52% # attempts to use FU when none available (Count)
system.cpu.statFuBusy::SimdFloatMultAcc             0      0.00%     83.52% # attempts to use FU when none available (Count)
system.cpu.statFuBusy::SimdFloatMatMultAcc            0      0.00%     83.52% # attempts to use FU when none available (Count)
system.cpu.statFuBusy::SimdFloatSqrt                0      0.00%     83.52% # attempts to use FU when none available (Count)
system.cpu.statFuBusy::SimdReduceAdd                0      0.00%     83.52% # attempts to use FU when none available (Count)
system.cpu.statFuBusy::SimdReduceAlu                0      0.00%     83.52% # attempts to use FU when none available (Count)
system.cpu.statFuBusy::SimdReduceCmp                0      0.00%     83.52% # attempts to use FU when none available (Count)
system.cpu.statFuBusy::SimdFloatReduceAdd            0      0.00%     83.52% # attempts to use FU when none available (Count)
system.cpu.statFuBusy::SimdFloatReduceCmp            0      0.00%     83.52% # attempts to use FU when none available (Count)
system.cpu.statFuBusy::SimdAes                      0      0.00%     83.52% # attempts to use FU when none available (Count)
system.cpu.statFuBusy::SimdAesMix                   0      0.00%     83.52% # attempts to use FU when none available (Count)
system.cpu.statFuBusy::SimdSha1Hash                 0      0.00%     83.52% # attempts to use FU when none available (Count)
system.cpu.statFuBusy::SimdSha1Hash2                0      0.00%     83.52% # attempts to use FU when none available (Count)
system.cpu.statFuBusy::SimdSha256Hash               0      0.00%     83.52% # attempts to use FU when none available (Count)
system.cpu.statFuBusy::SimdSha256Hash2              0      0.00%     83.52% # attempts to use FU when none available (Count)
system.cpu.statFuBusy::SimdShaSigma2                0      0.00%     83.52% # attempts to use FU when none available (Count)
system.cpu.statFuBusy::SimdShaSigma3                0      0.00%     83.52% # attempts to use FU when none available (Count)
system.cpu.statFuBusy::SimdPredAlu                  0      0.00%     83.52% # attempts to use FU when none available (Count)
system.cpu.statFuBusy::Matrix                       0      0.00%     83.52% # attempts to use FU when none available (Count)
system.cpu.statFuBusy::MatrixMov                    0      0.00%     83.52% # attempts to use FU when none available (Count)
system.cpu.statFuBusy::MatrixOP                     0      0.00%     83.52% # attempts to use FU when none available (Count)
system.cpu.statFuBusy::MemRead                 107166      7.98%     91.49% # attempts to use FU when none available (Count)
system.cpu.statFuBusy::MemWrite                   165      0.01%     91.50% # attempts to use FU when none available (Count)
system.cpu.statFuBusy::FloatMemRead            109766      8.17%     99.67% # attempts to use FU when none available (Count)
system.cpu.statFuBusy::FloatMemWrite             4392      0.33%    100.00% # attempts to use FU when none available (Count)
system.cpu.statFuBusy::IprAccess                    0      0.00%    100.00% # attempts to use FU when none available (Count)
system.cpu.statFuBusy::InstPrefetch                 0      0.00%    100.00% # attempts to use FU when none available (Count)
system.cpu.statFuBusy::VectorUnitStrideLoad            0      0.00%    100.00% # attempts to use FU when none available (Count)
system.cpu.statFuBusy::VectorUnitStrideStore            0      0.00%    100.00% # attempts to use FU when none available (Count)
system.cpu.statFuBusy::VectorUnitStrideMaskLoad            0      0.00%    100.00% # attempts to use FU when none available (Count)
system.cpu.statFuBusy::VectorUnitStrideMaskStore            0      0.00%    100.00% # attempts to use FU when none available (Count)
system.cpu.statFuBusy::VectorStridedLoad            0      0.00%    100.00% # attempts to use FU when none available (Count)
system.cpu.statFuBusy::VectorStridedStore            0      0.00%    100.00% # attempts to use FU when none available (Count)
system.cpu.statFuBusy::VectorIndexedLoad            0      0.00%    100.00% # attempts to use FU when none available (Count)
system.cpu.statFuBusy::VectorIndexedStore            0      0.00%    100.00% # attempts to use FU when none available (Count)
system.cpu.statFuBusy::VectorUnitStrideFaultOnlyFirstLoad            0      0.00%    100.00% # attempts to use FU when none available (Count)
system.cpu.statFuBusy::VectorWholeRegisterLoad            0      0.00%    100.00% # attempts to use FU when none available (Count)
system.cpu.statFuBusy::VectorWholeRegisterStore            0      0.00%    100.00% # attempts to use FU when none available (Count)
system.cpu.statFuBusy::VectorIntegerArith            0      0.00%    100.00% # attempts to use FU when none available (Count)
system.cpu.statFuBusy::VectorFloatArith             0      0.00%    100.00% # attempts to use FU when none available (Count)
system.cpu.statFuBusy::VectorFloatConvert            0      0.00%    100.00% # attempts to use FU when none available (Count)
system.cpu.statFuBusy::VectorIntegerReduce            0      0.00%    100.00% # attempts to use FU when none available (Count)
system.cpu.statFuBusy::VectorFloatReduce            0      0.00%    100.00% # attempts to use FU when none available (Count)
system.cpu.statFuBusy::VectorMisc                   0      0.00%    100.00% # attempts to use FU when none available (Count)
system.cpu.statFuBusy::VectorIntegerExtension            0      0.00%    100.00% # attempts to use FU when none available (Count)
system.cpu.statFuBusy::VectorConfig                 0      0.00%    100.00% # attempts to use FU when none available (Count)
system.cpu.statIssuedInstType_0::No_OpClass        57130      0.03%      0.03% # Number of instructions issued per FU type, per thread (Count)
system.cpu.statIssuedInstType_0::IntAlu      61642176     27.22%     27.25% # Number of instructions issued per FU type, per thread (Count)
system.cpu.statIssuedInstType_0::IntMult         7710      0.00%     27.25% # Number of instructions issued per FU type, per thread (Count)
system.cpu.statIssuedInstType_0::IntDiv          1934      0.00%     27.25% # Number of instructions issued per FU type, per thread (Count)
system.cpu.statIssuedInstType_0::FloatAdd     28513316     12.59%     39.84% # Number of instructions issued per FU type, per thread (Count)
system.cpu.statIssuedInstType_0::FloatCmp            0      0.00%     39.84% # Number of instructions issued per FU type, per thread (Count)
system.cpu.statIssuedInstType_0::FloatCvt            0      0.00%     39.84% # Number of instructions issued per FU type, per thread (Count)
system.cpu.statIssuedInstType_0::FloatMult            0      0.00%     39.84% # Number of instructions issued per FU type, per thread (Count)
system.cpu.statIssuedInstType_0::FloatMultAcc            0      0.00%     39.84% # Number of instructions issued per FU type, per thread (Count)
system.cpu.statIssuedInstType_0::FloatDiv            0      0.00%     39.84% # Number of instructions issued per FU type, per thread (Count)
system.cpu.statIssuedInstType_0::FloatMisc            0      0.00%     39.84% # Number of instructions issued per FU type, per thread (Count)
system.cpu.statIssuedInstType_0::FloatSqrt            0      0.00%     39.84% # Number of instructions issued per FU type, per thread (Count)
system.cpu.statIssuedInstType_0::SimdAdd            0      0.00%     39.84% # Number of instructions issued per FU type, per thread (Count)
system.cpu.statIssuedInstType_0::SimdAddAcc            0      0.00%     39.84% # Number of instructions issued per FU type, per thread (Count)
system.cpu.statIssuedInstType_0::SimdAlu      7192875      3.18%     43.02% # Number of instructions issued per FU type, per thread (Count)
system.cpu.statIssuedInstType_0::SimdCmp            0      0.00%     43.02% # Number of instructions issued per FU type, per thread (Count)
system.cpu.statIssuedInstType_0::SimdCvt            0      0.00%     43.02% # Number of instructions issued per FU type, per thread (Count)
system.cpu.statIssuedInstType_0::SimdMisc       157839      0.07%     43.09% # Number of instructions issued per FU type, per thread (Count)
system.cpu.statIssuedInstType_0::SimdMult            0      0.00%     43.09% # Number of instructions issued per FU type, per thread (Count)
system.cpu.statIssuedInstType_0::SimdMultAcc            0      0.00%     43.09% # Number of instructions issued per FU type, per thread (Count)
system.cpu.statIssuedInstType_0::SimdMatMultAcc            0      0.00%     43.09% # Number of instructions issued per FU type, per thread (Count)
system.cpu.statIssuedInstType_0::SimdShift            0      0.00%     43.09% # Number of instructions issued per FU type, per thread (Count)
system.cpu.statIssuedInstType_0::SimdShiftAcc            0      0.00%     43.09% # Number of instructions issued per FU type, per thread (Count)
system.cpu.statIssuedInstType_0::SimdDiv            0      0.00%     43.09% # Number of instructions issued per FU type, per thread (Count)
system.cpu.statIssuedInstType_0::SimdSqrt            0      0.00%     43.09% # Number of instructions issued per FU type, per thread (Count)
system.cpu.statIssuedInstType_0::SimdFloatAdd     36875798     16.29%     59.38% # Number of instructions issued per FU type, per thread (Count)
system.cpu.statIssuedInstType_0::SimdFloatAlu            0      0.00%     59.38% # Number of instructions issued per FU type, per thread (Count)
system.cpu.statIssuedInstType_0::SimdFloatCmp            0      0.00%     59.38% # Number of instructions issued per FU type, per thread (Count)
system.cpu.statIssuedInstType_0::SimdFloatCvt       254698      0.11%     59.49% # Number of instructions issued per FU type, per thread (Count)
system.cpu.statIssuedInstType_0::SimdFloatDiv       264811      0.12%     59.60% # Number of instructions issued per FU type, per thread (Count)
system.cpu.statIssuedInstType_0::SimdFloatMisc            0      0.00%     59.60% # Number of instructions issued per FU type, per thread (Count)
system.cpu.statIssuedInstType_0::SimdFloatMult     40536472     17.90%     77.51% # Number of instructions issued per FU type, per thread (Count)
system.cpu.statIssuedInstType_0::SimdFloatMultAcc            0      0.00%     77.51% # Number of instructions issued per FU type, per thread (Count)
system.cpu.statIssuedInstType_0::SimdFloatMatMultAcc            0      0.00%     77.51% # Number of instructions issued per FU type, per thread (Count)
system.cpu.statIssuedInstType_0::SimdFloatSqrt       105921      0.05%     77.55% # Number of instructions issued per FU type, per thread (Count)
system.cpu.statIssuedInstType_0::SimdReduceAdd            0      0.00%     77.55% # Number of instructions issued per FU type, per thread (Count)
system.cpu.statIssuedInstType_0::SimdReduceAlu            0      0.00%     77.55% # Number of instructions issued per FU type, per thread (Count)
system.cpu.statIssuedInstType_0::SimdReduceCmp            0      0.00%     77.55% # Number of instructions issued per FU type, per thread (Count)
system.cpu.statIssuedInstType_0::SimdFloatReduceAdd            0      0.00%     77.55% # Number of instructions issued per FU type, per thread (Count)
system.cpu.statIssuedInstType_0::SimdFloatReduceCmp            0      0.00%     77.55% # Number of instructions issued per FU type, per thread (Count)
system.cpu.statIssuedInstType_0::SimdAes            0      0.00%     77.55% # Number of instructions issued per FU type, per thread (Count)
system.cpu.statIssuedInstType_0::SimdAesMix            0      0.00%     77.55% # Number of instructions issued per FU type, per thread (Count)
system.cpu.statIssuedInstType_0::SimdSha1Hash            0      0.00%     77.55% # Number of instructions issued per FU type, per thread (Count)
system.cpu.statIssuedInstType_0::SimdSha1Hash2            0      0.00%     77.55% # Number of instructions issued per FU type, per thread (Count)
system.cpu.statIssuedInstType_0::SimdSha256Hash            0      0.00%     77.55% # Number of instructions issued per FU type, per thread (Count)
system.cpu.statIssuedInstType_0::SimdSha256Hash2            0      0.00%     77.55% # Number of instructions issued per FU type, per thread (Count)
system.cpu.statIssuedInstType_0::SimdShaSigma2            0      0.00%     77.55% # Number of instructions issued per FU type, per thread (Count)
system.cpu.statIssuedInstType_0::SimdShaSigma3            0      0.00%     77.55% # Number of instructions issued per FU type, per thread (Count)
system.cpu.statIssuedInstType_0::SimdPredAlu            0      0.00%     77.55% # Number of instructions issued per FU type, per thread (Count)
system.cpu.statIssuedInstType_0::Matrix             0      0.00%     77.55% # Number of instructions issued per FU type, per thread (Count)
system.cpu.statIssuedInstType_0::MatrixMov            0      0.00%     77.55% # Number of instructions issued per FU type, per thread (Count)
system.cpu.statIssuedInstType_0::MatrixOP            0      0.00%     77.55% # Number of instructions issued per FU type, per thread (Count)
system.cpu.statIssuedInstType_0::MemRead      1697024      0.75%     78.30% # Number of instructions issued per FU type, per thread (Count)
system.cpu.statIssuedInstType_0::MemWrite      1536133      0.68%     78.98% # Number of instructions issued per FU type, per thread (Count)
system.cpu.statIssuedInstType_0::FloatMemRead     37085824     16.38%     95.36% # Number of instructions issued per FU type, per thread (Count)
system.cpu.statIssuedInstType_0::FloatMemWrite     10510034      4.64%    100.00% # Number of instructions issued per FU type, per thread (Count)
system.cpu.statIssuedInstType_0::IprAccess            0      0.00%    100.00% # Number of instructions issued per FU type, per thread (Count)
system.cpu.statIssuedInstType_0::InstPrefetch            0      0.00%    100.00% # Number of instructions issued per FU type, per thread (Count)
system.cpu.statIssuedInstType_0::VectorUnitStrideLoad            0      0.00%    100.00% # Number of instructions issued per FU type, per thread (Count)
system.cpu.statIssuedInstType_0::VectorUnitStrideStore            0      0.00%    100.00% # Number of instructions issued per FU type, per thread (Count)
system.cpu.statIssuedInstType_0::VectorUnitStrideMaskLoad            0      0.00%    100.00% # Number of instructions issued per FU type, per thread (Count)
system.cpu.statIssuedInstType_0::VectorUnitStrideMaskStore            0      0.00%    100.00% # Number of instructions issued per FU type, per thread (Count)
system.cpu.statIssuedInstType_0::VectorStridedLoad            0      0.00%    100.00% # Number of instructions issued per FU type, per thread (Count)
system.cpu.statIssuedInstType_0::VectorStridedStore            0      0.00%    100.00% # Number of instructions issued per FU type, per thread (Count)
system.cpu.statIssuedInstType_0::VectorIndexedLoad            0      0.00%    100.00% # Number of instructions issued per FU type, per thread (Count)
system.cpu.statIssuedInstType_0::VectorIndexedStore            0      0.00%    100.00% # Number of instructions issued per FU type, per thread (Count)
system.cpu.statIssuedInstType_0::VectorUnitStrideFaultOnlyFirstLoad            0      0.00%    100.00% # Number of instructions issued per FU type, per thread (Count)
system.cpu.statIssuedInstType_0::VectorWholeRegisterLoad            0      0.00%    100.00% # Number of instructions issued per FU type, per thread (Count)
system.cpu.statIssuedInstType_0::VectorWholeRegisterStore            0      0.00%    100.00% # Number of instructions issued per FU type, per thread (Count)
system.cpu.statIssuedInstType_0::VectorIntegerArith            0      0.00%    100.00% # Number of instructions issued per FU type, per thread (Count)
system.cpu.statIssuedInstType_0::VectorFloatArith            0      0.00%    100.00% # Number of instructions issued per FU type, per thread (Count)
system.cpu.statIssuedInstType_0::VectorFloatConvert            0      0.00%    100.00% # Number of instructions issued per FU type, per thread (Count)
system.cpu.statIssuedInstType_0::VectorIntegerReduce            0      0.00%    100.00% # Number of instructions issued per FU type, per thread (Count)
system.cpu.statIssuedInstType_0::VectorFloatReduce            0      0.00%    100.00% # Number of instructions issued per FU type, per thread (Count)
system.cpu.statIssuedInstType_0::VectorMisc            0      0.00%    100.00% # Number of instructions issued per FU type, per thread (Count)
system.cpu.statIssuedInstType_0::VectorIntegerExtension            0      0.00%    100.00% # Number of instructions issued per FU type, per thread (Count)
system.cpu.statIssuedInstType_0::VectorConfig            0      0.00%    100.00% # Number of instructions issued per FU type, per thread (Count)
system.cpu.statIssuedInstType_0::total      226439695                       # Number of instructions issued per FU type, per thread (Count)
system.cpu.issueRate                         2.355226                       # Inst issue rate ((Count/Cycle))
system.cpu.fuBusy                             1343675                       # FU busy when requested (Count)
system.cpu.fuBusyRate                        0.005934                       # FU busy rate (busy events/executed inst) ((Count/Count))
system.cpu.intInstQueueReads                128959656                       # Number of integer instruction queue reads (Count)
system.cpu.intInstQueueWrites                16689706                       # Number of integer instruction queue writes (Count)
system.cpu.intInstQueueWakeupAccesses        16532781                       # Number of integer instruction queue wakeup accesses (Count)
system.cpu.fpInstQueueReads                 421002470                       # Number of floating instruction queue reads (Count)
system.cpu.fpInstQueueWrites                210056865                       # Number of floating instruction queue writes (Count)
system.cpu.fpInstQueueWakeupAccesses        209842387                       # Number of floating instruction queue wakeup accesses (Count)
system.cpu.vecInstQueueReads                        0                       # Number of vector instruction queue reads (Count)
system.cpu.vecInstQueueWrites                       0                       # Number of vector instruction queue writes (Count)
system.cpu.vecInstQueueWakeupAccesses               0                       # Number of vector instruction queue wakeup accesses (Count)
system.cpu.intAluAccesses                    16620402                       # Number of integer alu accesses (Count)
system.cpu.fpAluAccesses                    211105838                       # Number of floating point alu accesses (Count)
system.cpu.vecAluAccesses                           0                       # Number of vector alu accesses (Count)
system.cpu.numSquashedInsts                     19830                       # Number of squashed instructions skipped in execute (Count)
system.cpu.numSwp                                   0                       # Number of swp insts executed (Count)
system.cpu.timesIdled                            4370                       # Number of times that the entire CPU went into an idle state and unscheduled itself (Count)
system.cpu.idleCycles                          405177                       # Total number of cycles that the CPU has spent unscheduled due to idling (Cycle)
system.cpu.MemDepUnit__0.insertedLoads       38765279                       # Number of loads inserted to the mem dependence unit. (Count)
system.cpu.MemDepUnit__0.insertedStores      12043264                       # Number of stores inserted to the mem dependence unit. (Count)
system.cpu.MemDepUnit__0.conflictingLoads      1407347                       # Number of conflicting loads. (Count)
system.cpu.MemDepUnit__0.conflictingStores        18154                       # Number of conflicting stores. (Count)
system.cpu.MemDepUnit__1.insertedLoads              0                       # Number of loads inserted to the mem dependence unit. (Count)
system.cpu.MemDepUnit__1.insertedStores             0                       # Number of stores inserted to the mem dependence unit. (Count)
system.cpu.MemDepUnit__1.conflictingLoads            0                       # Number of conflicting loads. (Count)
system.cpu.MemDepUnit__1.conflictingStores            0                       # Number of conflicting stores. (Count)
system.cpu.MemDepUnit__2.insertedLoads              0                       # Number of loads inserted to the mem dependence unit. (Count)
system.cpu.MemDepUnit__2.insertedStores             0                       # Number of stores inserted to the mem dependence unit. (Count)
system.cpu.MemDepUnit__2.conflictingLoads            0                       # Number of conflicting loads. (Count)
system.cpu.MemDepUnit__2.conflictingStores            0                       # Number of conflicting stores. (Count)
system.cpu.MemDepUnit__3.insertedLoads              0                       # Number of loads inserted to the mem dependence unit. (Count)
system.cpu.MemDepUnit__3.insertedStores             0                       # Number of stores inserted to the mem dependence unit. (Count)
system.cpu.MemDepUnit__3.conflictingLoads            0                       # Number of conflicting loads. (Count)
system.cpu.MemDepUnit__3.conflictingStores            0                       # Number of conflicting stores. (Count)
system.cpu.branchPred.lookups                 2162362                       # Number of BP lookups (Count)
system.cpu.branchPred.condPredicted           1913735                       # Number of conditional branches predicted (Count)
system.cpu.branchPred.condIncorrect              8697                       # Number of conditional branches incorrect (Count)
system.cpu.branchPred.BTBLookups              1627303                       # Number of BTB lookups (Count)
system.cpu.branchPred.BTBUpdates                 4271                       # Number of BTB updates (Count)
system.cpu.branchPred.BTBHits                 1626095                       # Number of BTB hits (Count)
system.cpu.branchPred.BTBHitRatio            0.999258                       # BTB Hit Ratio (Ratio)
system.cpu.branchPred.RASUsed                   75692                       # Number of times the RAS was used to get a target. (Count)
system.cpu.branchPred.RASIncorrect                  1                       # Number of incorrect RAS predictions. (Count)
system.cpu.branchPred.indirectLookups            3503                       # Number of indirect predictor lookups. (Count)
system.cpu.branchPred.indirectHits               2515                       # Number of indirect target hits. (Count)
system.cpu.branchPred.indirectMisses              988                       # Number of indirect misses. (Count)
system.cpu.branchPred.indirectMispredicted          215                       # Number of mispredicted indirect branches. (Count)
system.cpu.commit.commitSquashedInsts          256905                       # The number of squashed insts skipped by commit (Count)
system.cpu.commit.commitNonSpecStalls            3759                       # The number of times commit has been forced to stall to communicate backwards (Count)
system.cpu.commit.branchMispredicts              7435                       # The number of times a branch was mispredicted (Count)
system.cpu.commit.numCommittedDist::samples     95699415                       # Number of insts commited each cycle (Count)
system.cpu.commit.numCommittedDist::mean     2.363926                       # Number of insts commited each cycle (Count)
system.cpu.commit.numCommittedDist::stdev     2.818035                       # Number of insts commited each cycle (Count)
system.cpu.commit.numCommittedDist::underflows            0      0.00%      0.00% # Number of insts commited each cycle (Count)
system.cpu.commit.numCommittedDist::0        44567920     46.57%     46.57% # Number of insts commited each cycle (Count)
system.cpu.commit.numCommittedDist::1         7955057      8.31%     54.88% # Number of insts commited each cycle (Count)
system.cpu.commit.numCommittedDist::2         4141994      4.33%     59.21% # Number of insts commited each cycle (Count)
system.cpu.commit.numCommittedDist::3         7167265      7.49%     66.70% # Number of insts commited each cycle (Count)
system.cpu.commit.numCommittedDist::4        10680946     11.16%     77.86% # Number of insts commited each cycle (Count)
system.cpu.commit.numCommittedDist::5         4580524      4.79%     82.65% # Number of insts commited each cycle (Count)
system.cpu.commit.numCommittedDist::6         3679494      3.84%     86.49% # Number of insts commited each cycle (Count)
system.cpu.commit.numCommittedDist::7         2627615      2.75%     89.24% # Number of insts commited each cycle (Count)
system.cpu.commit.numCommittedDist::8        10298600     10.76%    100.00% # Number of insts commited each cycle (Count)
system.cpu.commit.numCommittedDist::overflows            0      0.00%    100.00% # Number of insts commited each cycle (Count)
system.cpu.commit.numCommittedDist::min_value            0                       # Number of insts commited each cycle (Count)
system.cpu.commit.numCommittedDist::max_value            8                       # Number of insts commited each cycle (Count)
system.cpu.commit.numCommittedDist::total     95699415                       # Number of insts commited each cycle (Count)
system.cpu.commit.amos                              0                       # Number of atomic instructions committed (Count)
system.cpu.commit.membars                         104                       # Number of memory barriers committed (Count)
system.cpu.commit.functionCalls                 74067                       # Number of function calls committed. (Count)
system.cpu.commit.committedInstType_0::No_OpClass        55972      0.02%      0.02% # Class of committed instruction (Count)
system.cpu.commit.committedInstType_0::IntAlu     61551239     27.21%     27.23% # Class of committed instruction (Count)
system.cpu.commit.committedInstType_0::IntMult         7650      0.00%     27.24% # Class of committed instruction (Count)
system.cpu.commit.committedInstType_0::IntDiv         1932      0.00%     27.24% # Class of committed instruction (Count)
system.cpu.commit.committedInstType_0::FloatAdd     28492131     12.59%     39.83% # Class of committed instruction (Count)
system.cpu.commit.committedInstType_0::FloatCmp            0      0.00%     39.83% # Class of committed instruction (Count)
system.cpu.commit.committedInstType_0::FloatCvt            0      0.00%     39.83% # Class of committed instruction (Count)
system.cpu.commit.committedInstType_0::FloatMult            0      0.00%     39.83% # Class of committed instruction (Count)
system.cpu.commit.committedInstType_0::FloatMultAcc            0      0.00%     39.83% # Class of committed instruction (Count)
system.cpu.commit.committedInstType_0::FloatDiv            0      0.00%     39.83% # Class of committed instruction (Count)
system.cpu.commit.committedInstType_0::FloatMisc            0      0.00%     39.83% # Class of committed instruction (Count)
system.cpu.commit.committedInstType_0::FloatSqrt            0      0.00%     39.83% # Class of committed instruction (Count)
system.cpu.commit.committedInstType_0::SimdAdd            0      0.00%     39.83% # Class of committed instruction (Count)
system.cpu.commit.committedInstType_0::SimdAddAcc            0      0.00%     39.83% # Class of committed instruction (Count)
system.cpu.commit.committedInstType_0::SimdAlu      7184454      3.18%     43.01% # Class of committed instruction (Count)
system.cpu.commit.committedInstType_0::SimdCmp            0      0.00%     43.01% # Class of committed instruction (Count)
system.cpu.commit.committedInstType_0::SimdCvt            0      0.00%     43.01% # Class of committed instruction (Count)
system.cpu.commit.committedInstType_0::SimdMisc       157752      0.07%     43.08% # Class of committed instruction (Count)
system.cpu.commit.committedInstType_0::SimdMult            0      0.00%     43.08% # Class of committed instruction (Count)
system.cpu.commit.committedInstType_0::SimdMultAcc            0      0.00%     43.08% # Class of committed instruction (Count)
system.cpu.commit.committedInstType_0::SimdMatMultAcc            0      0.00%     43.08% # Class of committed instruction (Count)
system.cpu.commit.committedInstType_0::SimdShift            0      0.00%     43.08% # Class of committed instruction (Count)
system.cpu.commit.committedInstType_0::SimdShiftAcc            0      0.00%     43.08% # Class of committed instruction (Count)
system.cpu.commit.committedInstType_0::SimdDiv            0      0.00%     43.08% # Class of committed instruction (Count)
system.cpu.commit.committedInstType_0::SimdSqrt            0      0.00%     43.08% # Class of committed instruction (Count)
system.cpu.commit.committedInstType_0::SimdFloatAdd     36870033     16.30%     59.37% # Class of committed instruction (Count)
system.cpu.commit.committedInstType_0::SimdFloatAlu            0      0.00%     59.37% # Class of committed instruction (Count)
system.cpu.commit.committedInstType_0::SimdFloatCmp            0      0.00%     59.37% # Class of committed instruction (Count)
system.cpu.commit.committedInstType_0::SimdFloatCvt       254066      0.11%     59.49% # Class of committed instruction (Count)
system.cpu.commit.committedInstType_0::SimdFloatDiv       264800      0.12%     59.60% # Class of committed instruction (Count)
system.cpu.commit.committedInstType_0::SimdFloatMisc            0      0.00%     59.60% # Class of committed instruction (Count)
system.cpu.commit.committedInstType_0::SimdFloatMult     40528061     17.91%     77.52% # Class of committed instruction (Count)
system.cpu.commit.committedInstType_0::SimdFloatMultAcc            0      0.00%     77.52% # Class of committed instruction (Count)
system.cpu.commit.committedInstType_0::SimdFloatMatMultAcc            0      0.00%     77.52% # Class of committed instruction (Count)
system.cpu.commit.committedInstType_0::SimdFloatSqrt       105920      0.05%     77.57% # Class of committed instruction (Count)
system.cpu.commit.committedInstType_0::SimdReduceAdd            0      0.00%     77.57% # Class of committed instruction (Count)
system.cpu.commit.committedInstType_0::SimdReduceAlu            0      0.00%     77.57% # Class of committed instruction (Count)
system.cpu.commit.committedInstType_0::SimdReduceCmp            0      0.00%     77.57% # Class of committed instruction (Count)
system.cpu.commit.committedInstType_0::SimdFloatReduceAdd            0      0.00%     77.57% # Class of committed instruction (Count)
system.cpu.commit.committedInstType_0::SimdFloatReduceCmp            0      0.00%     77.57% # Class of committed instruction (Count)
system.cpu.commit.committedInstType_0::SimdAes            0      0.00%     77.57% # Class of committed instruction (Count)
system.cpu.commit.committedInstType_0::SimdAesMix            0      0.00%     77.57% # Class of committed instruction (Count)
system.cpu.commit.committedInstType_0::SimdSha1Hash            0      0.00%     77.57% # Class of committed instruction (Count)
system.cpu.commit.committedInstType_0::SimdSha1Hash2            0      0.00%     77.57% # Class of committed instruction (Count)
system.cpu.commit.committedInstType_0::SimdSha256Hash            0      0.00%     77.57% # Class of committed instruction (Count)
system.cpu.commit.committedInstType_0::SimdSha256Hash2            0      0.00%     77.57% # Class of committed instruction (Count)
system.cpu.commit.committedInstType_0::SimdShaSigma2            0      0.00%     77.57% # Class of committed instruction (Count)
system.cpu.commit.committedInstType_0::SimdShaSigma3            0      0.00%     77.57% # Class of committed instruction (Count)
system.cpu.commit.committedInstType_0::SimdPredAlu            0      0.00%     77.57% # Class of committed instruction (Count)
system.cpu.commit.committedInstType_0::Matrix            0      0.00%     77.57% # Class of committed instruction (Count)
system.cpu.commit.committedInstType_0::MatrixMov            0      0.00%     77.57% # Class of committed instruction (Count)
system.cpu.commit.committedInstType_0::MatrixOP            0      0.00%     77.57% # Class of committed instruction (Count)
system.cpu.commit.committedInstType_0::MemRead      1685573      0.75%     78.31% # Class of committed instruction (Count)
system.cpu.commit.committedInstType_0::MemWrite      1532076      0.68%     78.99% # Class of committed instruction (Count)
system.cpu.commit.committedInstType_0::FloatMemRead     37039546     16.37%     95.36% # Class of committed instruction (Count)
system.cpu.commit.committedInstType_0::FloatMemWrite     10495105      4.64%    100.00% # Class of committed instruction (Count)
system.cpu.commit.committedInstType_0::IprAccess            0      0.00%    100.00% # Class of committed instruction (Count)
system.cpu.commit.committedInstType_0::InstPrefetch            0      0.00%    100.00% # Class of committed instruction (Count)
system.cpu.commit.committedInstType_0::VectorUnitStrideLoad            0      0.00%    100.00% # Class of committed instruction (Count)
system.cpu.commit.committedInstType_0::VectorUnitStrideStore            0      0.00%    100.00% # Class of committed instruction (Count)
system.cpu.commit.committedInstType_0::VectorUnitStrideMaskLoad            0      0.00%    100.00% # Class of committed instruction (Count)
system.cpu.commit.committedInstType_0::VectorUnitStrideMaskStore            0      0.00%    100.00% # Class of committed instruction (Count)
system.cpu.commit.committedInstType_0::VectorStridedLoad            0      0.00%    100.00% # Class of committed instruction (Count)
system.cpu.commit.committedInstType_0::VectorStridedStore            0      0.00%    100.00% # Class of committed instruction (Count)
system.cpu.commit.committedInstType_0::VectorIndexedLoad            0      0.00%    100.00% # Class of committed instruction (Count)
system.cpu.commit.committedInstType_0::VectorIndexedStore            0      0.00%    100.00% # Class of committed instruction (Count)
system.cpu.commit.committedInstType_0::VectorUnitStrideFaultOnlyFirstLoad            0      0.00%    100.00% # Class of committed instruction (Count)
system.cpu.commit.committedInstType_0::VectorWholeRegisterLoad            0      0.00%    100.00% # Class of committed instruction (Count)
system.cpu.commit.committedInstType_0::VectorWholeRegisterStore            0      0.00%    100.00% # Class of committed instruction (Count)
system.cpu.commit.committedInstType_0::VectorIntegerArith            0      0.00%    100.00% # Class of committed instruction (Count)
system.cpu.commit.committedInstType_0::VectorFloatArith            0      0.00%    100.00% # Class of committed instruction (Count)
system.cpu.commit.committedInstType_0::VectorFloatConvert            0      0.00%    100.00% # Class of committed instruction (Count)
system.cpu.commit.committedInstType_0::VectorIntegerReduce            0      0.00%    100.00% # Class of committed instruction (Count)
system.cpu.commit.committedInstType_0::VectorFloatReduce            0      0.00%    100.00% # Class of committed instruction (Count)
system.cpu.commit.committedInstType_0::VectorMisc            0      0.00%    100.00% # Class of committed instruction (Count)
system.cpu.commit.committedInstType_0::VectorIntegerExtension            0      0.00%    100.00% # Class of committed instruction (Count)
system.cpu.commit.committedInstType_0::VectorConfig            0      0.00%    100.00% # Class of committed instruction (Count)
system.cpu.commit.committedInstType_0::total    226226310                       # Class of committed instruction (Count)
system.cpu.commit.commitEligibleSamples      10298600                       # number cycles where commit BW limit reached (Cycle)
system.cpu.commitStats0.numInsts            150000004                       # Number of instructions committed (thread level) (Count)
system.cpu.commitStats0.numOps              226226309                       # Number of ops (including micro ops) committed (thread level) (Count)
system.cpu.commitStats0.numInstsNotNOP      150000004                       # Number of instructions committed excluding NOPs or prefetches (Count)
system.cpu.commitStats0.numOpsNotNOP        226226310                       # Number of Ops (including micro ops) Simulated (Count)
system.cpu.commitStats0.cpi                  0.640957                       # CPI: cycles per instruction (thread level) ((Cycle/Count))
system.cpu.commitStats0.ipc                  1.560167                       # IPC: instructions per cycle (thread level) ((Count/Cycle))
system.cpu.commitStats0.numMemRefs           50752300                       # Number of memory references committed (Count)
system.cpu.commitStats0.numFpInsts          209768140                       # Number of float instructions (Count)
system.cpu.commitStats0.numIntInsts          63031086                       # Number of integer instructions (Count)
system.cpu.commitStats0.numLoadInsts         38725119                       # Number of load instructions (Count)
system.cpu.commitStats0.numStoreInsts        12027181                       # Number of store instructions (Count)
system.cpu.commitStats0.numVecInsts                 0                       # Number of vector instructions (Count)
system.cpu.commitStats0.committedInstType::No_OpClass        55972      0.02%      0.02% # Class of committed instruction. (Count)
system.cpu.commitStats0.committedInstType::IntAlu     61551239     27.21%     27.23% # Class of committed instruction. (Count)
system.cpu.commitStats0.committedInstType::IntMult         7650      0.00%     27.24% # Class of committed instruction. (Count)
system.cpu.commitStats0.committedInstType::IntDiv         1932      0.00%     27.24% # Class of committed instruction. (Count)
system.cpu.commitStats0.committedInstType::FloatAdd     28492131     12.59%     39.83% # Class of committed instruction. (Count)
system.cpu.commitStats0.committedInstType::FloatCmp            0      0.00%     39.83% # Class of committed instruction. (Count)
system.cpu.commitStats0.committedInstType::FloatCvt            0      0.00%     39.83% # Class of committed instruction. (Count)
system.cpu.commitStats0.committedInstType::FloatMult            0      0.00%     39.83% # Class of committed instruction. (Count)
system.cpu.commitStats0.committedInstType::FloatMultAcc            0      0.00%     39.83% # Class of committed instruction. (Count)
system.cpu.commitStats0.committedInstType::FloatDiv            0      0.00%     39.83% # Class of committed instruction. (Count)
system.cpu.commitStats0.committedInstType::FloatMisc            0      0.00%     39.83% # Class of committed instruction. (Count)
system.cpu.commitStats0.committedInstType::FloatSqrt            0      0.00%     39.83% # Class of committed instruction. (Count)
system.cpu.commitStats0.committedInstType::SimdAdd            0      0.00%     39.83% # Class of committed instruction. (Count)
system.cpu.commitStats0.committedInstType::SimdAddAcc            0      0.00%     39.83% # Class of committed instruction. (Count)
system.cpu.commitStats0.committedInstType::SimdAlu      7184454      3.18%     43.01% # Class of committed instruction. (Count)
system.cpu.commitStats0.committedInstType::SimdCmp            0      0.00%     43.01% # Class of committed instruction. (Count)
system.cpu.commitStats0.committedInstType::SimdCvt            0      0.00%     43.01% # Class of committed instruction. (Count)
system.cpu.commitStats0.committedInstType::SimdMisc       157752      0.07%     43.08% # Class of committed instruction. (Count)
system.cpu.commitStats0.committedInstType::SimdMult            0      0.00%     43.08% # Class of committed instruction. (Count)
system.cpu.commitStats0.committedInstType::SimdMultAcc            0      0.00%     43.08% # Class of committed instruction. (Count)
system.cpu.commitStats0.committedInstType::SimdMatMultAcc            0      0.00%     43.08% # Class of committed instruction. (Count)
system.cpu.commitStats0.committedInstType::SimdShift            0      0.00%     43.08% # Class of committed instruction. (Count)
system.cpu.commitStats0.committedInstType::SimdShiftAcc            0      0.00%     43.08% # Class of committed instruction. (Count)
system.cpu.commitStats0.committedInstType::SimdDiv            0      0.00%     43.08% # Class of committed instruction. (Count)
system.cpu.commitStats0.committedInstType::SimdSqrt            0      0.00%     43.08% # Class of committed instruction. (Count)
system.cpu.commitStats0.committedInstType::SimdFloatAdd     36870033     16.30%     59.37% # Class of committed instruction. (Count)
system.cpu.commitStats0.committedInstType::SimdFloatAlu            0      0.00%     59.37% # Class of committed instruction. (Count)
system.cpu.commitStats0.committedInstType::SimdFloatCmp            0      0.00%     59.37% # Class of committed instruction. (Count)
system.cpu.commitStats0.committedInstType::SimdFloatCvt       254066      0.11%     59.49% # Class of committed instruction. (Count)
system.cpu.commitStats0.committedInstType::SimdFloatDiv       264800      0.12%     59.60% # Class of committed instruction. (Count)
system.cpu.commitStats0.committedInstType::SimdFloatMisc            0      0.00%     59.60% # Class of committed instruction. (Count)
system.cpu.commitStats0.committedInstType::SimdFloatMult     40528061     17.91%     77.52% # Class of committed instruction. (Count)
system.cpu.commitStats0.committedInstType::SimdFloatMultAcc            0      0.00%     77.52% # Class of committed instruction. (Count)
system.cpu.commitStats0.committedInstType::SimdFloatMatMultAcc            0      0.00%     77.52% # Class of committed instruction. (Count)
system.cpu.commitStats0.committedInstType::SimdFloatSqrt       105920      0.05%     77.57% # Class of committed instruction. (Count)
system.cpu.commitStats0.committedInstType::SimdReduceAdd            0      0.00%     77.57% # Class of committed instruction. (Count)
system.cpu.commitStats0.committedInstType::SimdReduceAlu            0      0.00%     77.57% # Class of committed instruction. (Count)
system.cpu.commitStats0.committedInstType::SimdReduceCmp            0      0.00%     77.57% # Class of committed instruction. (Count)
system.cpu.commitStats0.committedInstType::SimdFloatReduceAdd            0      0.00%     77.57% # Class of committed instruction. (Count)
system.cpu.commitStats0.committedInstType::SimdFloatReduceCmp            0      0.00%     77.57% # Class of committed instruction. (Count)
system.cpu.commitStats0.committedInstType::SimdAes            0      0.00%     77.57% # Class of committed instruction. (Count)
system.cpu.commitStats0.committedInstType::SimdAesMix            0      0.00%     77.57% # Class of committed instruction. (Count)
system.cpu.commitStats0.committedInstType::SimdSha1Hash            0      0.00%     77.57% # Class of committed instruction. (Count)
system.cpu.commitStats0.committedInstType::SimdSha1Hash2            0      0.00%     77.57% # Class of committed instruction. (Count)
system.cpu.commitStats0.committedInstType::SimdSha256Hash            0      0.00%     77.57% # Class of committed instruction. (Count)
system.cpu.commitStats0.committedInstType::SimdSha256Hash2            0      0.00%     77.57% # Class of committed instruction. (Count)
system.cpu.commitStats0.committedInstType::SimdShaSigma2            0      0.00%     77.57% # Class of committed instruction. (Count)
system.cpu.commitStats0.committedInstType::SimdShaSigma3            0      0.00%     77.57% # Class of committed instruction. (Count)
system.cpu.commitStats0.committedInstType::SimdPredAlu            0      0.00%     77.57% # Class of committed instruction. (Count)
system.cpu.commitStats0.committedInstType::Matrix            0      0.00%     77.57% # Class of committed instruction. (Count)
system.cpu.commitStats0.committedInstType::MatrixMov            0      0.00%     77.57% # Class of committed instruction. (Count)
system.cpu.commitStats0.committedInstType::MatrixOP            0      0.00%     77.57% # Class of committed instruction. (Count)
system.cpu.commitStats0.committedInstType::MemRead      1685573      0.75%     78.31% # Class of committed instruction. (Count)
system.cpu.commitStats0.committedInstType::MemWrite      1532076      0.68%     78.99% # Class of committed instruction. (Count)
system.cpu.commitStats0.committedInstType::FloatMemRead     37039546     16.37%     95.36% # Class of committed instruction. (Count)
system.cpu.commitStats0.committedInstType::FloatMemWrite     10495105      4.64%    100.00% # Class of committed instruction. (Count)
system.cpu.commitStats0.committedInstType::IprAccess            0      0.00%    100.00% # Class of committed instruction. (Count)
system.cpu.commitStats0.committedInstType::InstPrefetch            0      0.00%    100.00% # Class of committed instruction. (Count)
system.cpu.commitStats0.committedInstType::VectorUnitStrideLoad            0      0.00%    100.00% # Class of committed instruction. (Count)
system.cpu.commitStats0.committedInstType::VectorUnitStrideStore            0      0.00%    100.00% # Class of committed instruction. (Count)
system.cpu.commitStats0.committedInstType::VectorUnitStrideMaskLoad            0      0.00%    100.00% # Class of committed instruction. (Count)
system.cpu.commitStats0.committedInstType::VectorUnitStrideMaskStore            0      0.00%    100.00% # Class of committed instruction. (Count)
system.cpu.commitStats0.committedInstType::VectorStridedLoad            0      0.00%    100.00% # Class of committed instruction. (Count)
system.cpu.commitStats0.committedInstType::VectorStridedStore            0      0.00%    100.00% # Class of committed instruction. (Count)
system.cpu.commitStats0.committedInstType::VectorIndexedLoad            0      0.00%    100.00% # Class of committed instruction. (Count)
system.cpu.commitStats0.committedInstType::VectorIndexedStore            0      0.00%    100.00% # Class of committed instruction. (Count)
system.cpu.commitStats0.committedInstType::VectorUnitStrideFaultOnlyFirstLoad            0      0.00%    100.00% # Class of committed instruction. (Count)
system.cpu.commitStats0.committedInstType::VectorWholeRegisterLoad            0      0.00%    100.00% # Class of committed instruction. (Count)
system.cpu.commitStats0.committedInstType::VectorWholeRegisterStore            0      0.00%    100.00% # Class of committed instruction. (Count)
system.cpu.commitStats0.committedInstType::VectorIntegerArith            0      0.00%    100.00% # Class of committed instruction. (Count)
system.cpu.commitStats0.committedInstType::VectorFloatArith            0      0.00%    100.00% # Class of committed instruction. (Count)
system.cpu.commitStats0.committedInstType::VectorFloatConvert            0      0.00%    100.00% # Class of committed instruction. (Count)
system.cpu.commitStats0.committedInstType::VectorIntegerReduce            0      0.00%    100.00% # Class of committed instruction. (Count)
system.cpu.commitStats0.committedInstType::VectorFloatReduce            0      0.00%    100.00% # Class of committed instruction. (Count)
system.cpu.commitStats0.committedInstType::VectorMisc            0      0.00%    100.00% # Class of committed instruction. (Count)
system.cpu.commitStats0.committedInstType::VectorIntegerExtension            0      0.00%    100.00% # Class of committed instruction. (Count)
system.cpu.commitStats0.committedInstType::VectorConfig            0      0.00%    100.00% # Class of committed instruction. (Count)
system.cpu.commitStats0.committedInstType::total    226226310                       # Class of committed instruction. (Count)
system.cpu.commitStats0.committedControl::IsControl      2111706                       # Class of control type instructions committed (Count)
system.cpu.commitStats0.committedControl::IsDirectControl      2035184                       # Class of control type instructions committed (Count)
system.cpu.commitStats0.committedControl::IsIndirectControl        76407                       # Class of control type instructions committed (Count)
system.cpu.commitStats0.committedControl::IsCondControl      1870517                       # Class of control type instructions committed (Count)
system.cpu.commitStats0.committedControl::IsUncondControl       241178                       # Class of control type instructions committed (Count)
system.cpu.commitStats0.committedControl::IsCall        74067                       # Class of control type instructions committed (Count)
system.cpu.commitStats0.committedControl::IsReturn        74067                       # Class of control type instructions committed (Count)
system.cpu.decode.idleCycles                 16603482                       # Number of cycles decode is idle (Cycle)
system.cpu.decode.blockedCycles              45654614                       # Number of cycles decode is blocked (Cycle)
system.cpu.decode.runCycles                  32440254                       # Number of cycles decode is running (Cycle)
system.cpu.decode.unblockCycles               1029112                       # Number of cycles decode is unblocking (Cycle)
system.cpu.decode.squashCycles                  10889                       # Number of cycles decode is squashing (Cycle)
system.cpu.decode.branchResolved              1601703                       # Number of times decode resolved a branch (Count)
system.cpu.decode.branchMispred                  1275                       # Number of times decode detected a branch misprediction (Count)
system.cpu.decode.decodedInsts              226622753                       # Number of instructions handled by decode (Count)
system.cpu.decode.squashedInsts                  6666                       # Number of squashed instructions handled by decode (Count)
system.cpu.executeStats0.numInsts           226385838                       # Number of executed instructions (Count)
system.cpu.executeStats0.numNop                     0                       # Number of nop insts executed (Count)
system.cpu.executeStats0.numBranches          2118232                       # Number of branches executed (Count)
system.cpu.executeStats0.numLoadInsts        38756418                       # Number of load instructions executed (Count)
system.cpu.executeStats0.numStoreInsts       12033917                       # Number of stores executed (Count)
system.cpu.executeStats0.instRate            2.354665                       # Inst execution rate ((Count/Cycle))
system.cpu.executeStats0.numCCRegReads       10615872                       # Number of times the CC registers were read (Count)
system.cpu.executeStats0.numCCRegWrites       4112115                       # Number of times the CC registers were written (Count)
system.cpu.executeStats0.numFpRegReads      355591862                       # Number of times the floating registers were read (Count)
system.cpu.executeStats0.numFpRegWrites     198936016                       # Number of times the floating registers were written (Count)
system.cpu.executeStats0.numIntRegReads      65118416                       # Number of times the integer registers were read (Count)
system.cpu.executeStats0.numIntRegWrites     12471502                       # Number of times the integer registers were written (Count)
system.cpu.executeStats0.numMemRefs          50790335                       # Number of memory refs (Count)
system.cpu.executeStats0.numMiscRegReads     56188775                       # Number of times the Misc registers were read (Count)
system.cpu.executeStats0.numMiscRegWrites         1720                       # Number of times the Misc registers were written (Count)
system.cpu.executeStats0.numVecAluAccesses            0                       # Number of vector alu accesses (Count)
system.cpu.executeStats0.numDiscardedOps            0                       # Number of ops (including micro ops) which were discarded before commit (Count)
system.cpu.fetch.predictedBranches            1704302                       # Number of branches that fetch has predicted taken (Count)
system.cpu.fetch.cycles                      81495396                       # Number of cycles fetch has run and was not squashing or blocked (Cycle)
system.cpu.fetch.squashCycles                   24302                       # Number of cycles fetch has spent squashing (Cycle)
system.cpu.fetch.miscStallCycles                10222                       # Number of cycles fetch has spent waiting on interrupts, or bad addresses, or out of MSHRs (Cycle)
system.cpu.fetch.pendingTrapStallCycles            33                       # Number of stall cycles due to pending traps (Cycle)
system.cpu.fetch.cacheLines                  14023383                       # Number of cache lines fetched (Count)
system.cpu.fetch.icacheSquashes                  2593                       # Number of outstanding Icache misses that were squashed (Count)
system.cpu.fetch.nisnDist::samples           95738351                       # Number of instructions fetched each cycle (Total) (Count)
system.cpu.fetch.nisnDist::mean              2.368878                       # Number of instructions fetched each cycle (Total) (Count)
system.cpu.fetch.nisnDist::stdev             3.464429                       # Number of instructions fetched each cycle (Total) (Count)
system.cpu.fetch.nisnDist::underflows               0      0.00%      0.00% # Number of instructions fetched each cycle (Total) (Count)
system.cpu.fetch.nisnDist::0                 61810296     64.56%     64.56% # Number of instructions fetched each cycle (Total) (Count)
system.cpu.fetch.nisnDist::1                  2062122      2.15%     66.72% # Number of instructions fetched each cycle (Total) (Count)
system.cpu.fetch.nisnDist::2                  1795523      1.88%     68.59% # Number of instructions fetched each cycle (Total) (Count)
system.cpu.fetch.nisnDist::3                  1064931      1.11%     69.70% # Number of instructions fetched each cycle (Total) (Count)
system.cpu.fetch.nisnDist::4                   782111      0.82%     70.52% # Number of instructions fetched each cycle (Total) (Count)
system.cpu.fetch.nisnDist::5                  1465232      1.53%     72.05% # Number of instructions fetched each cycle (Total) (Count)
system.cpu.fetch.nisnDist::6                  2227596      2.33%     74.38% # Number of instructions fetched each cycle (Total) (Count)
system.cpu.fetch.nisnDist::7                  2119987      2.21%     76.59% # Number of instructions fetched each cycle (Total) (Count)
system.cpu.fetch.nisnDist::8                 22410553     23.41%    100.00% # Number of instructions fetched each cycle (Total) (Count)
system.cpu.fetch.nisnDist::overflows                0      0.00%    100.00% # Number of instructions fetched each cycle (Total) (Count)
system.cpu.fetch.nisnDist::min_value                0                       # Number of instructions fetched each cycle (Total) (Count)
system.cpu.fetch.nisnDist::max_value                8                       # Number of instructions fetched each cycle (Total) (Count)
system.cpu.fetch.nisnDist::total             95738351                       # Number of instructions fetched each cycle (Total) (Count)
system.cpu.fetchStats0.numInsts             150241769                       # Number of instructions fetched (thread level) (Count)
system.cpu.fetchStats0.numOps                       0                       # Number of ops (including micro ops) fetched (thread level) (Count)
system.cpu.fetchStats0.fetchRate             1.562682                       # Number of inst fetches per cycle ((Count/Cycle))
system.cpu.fetchStats0.numBranches            2162362                       # Number of branches fetched (Count)
system.cpu.fetchStats0.branchRate            0.022491                       # Number of branch fetches per cycle (Ratio)
system.cpu.fetchStats0.icacheStallCycles     14220549                       # ICache total stall cycles (Cycle)
system.cpu.fetchStats0.numFetchSuspends             0                       # Number of times Execute suspended instruction fetching (Count)
system.cpu.iew.idleCycles                           0                       # Number of cycles IEW is idle (Cycle)
system.cpu.iew.squashCycles                     10889                       # Number of cycles IEW is squashing (Cycle)
system.cpu.iew.blockCycles                     258349                       # Number of cycles IEW is blocking (Cycle)
system.cpu.iew.unblockCycles                  9395175                       # Number of cycles IEW is unblocking (Cycle)
system.cpu.iew.dispatchedInsts              226484740                       # Number of instructions dispatched to IQ (Count)
system.cpu.iew.dispSquashedInsts                 2350                       # Number of squashed instructions skipped by dispatch (Count)
system.cpu.iew.dispLoadInsts                 38765279                       # Number of dispatched load instructions (Count)
system.cpu.iew.dispStoreInsts                12043264                       # Number of dispatched store instructions (Count)
system.cpu.iew.dispNonSpecInsts                  1704                       # Number of dispatched non-speculative instructions (Count)
system.cpu.iew.iqFullEvents                      1566                       # Number of times the IQ has become full, causing a stall (Count)
system.cpu.iew.lsqFullEvents                  9338327                       # Number of times the LSQ has become full, causing a stall (Count)
system.cpu.iew.memOrderViolationEvents           3401                       # Number of memory order violations (Count)
system.cpu.iew.predictedTakenIncorrect           4451                       # Number of branches that were predicted taken incorrectly (Count)
system.cpu.iew.predictedNotTakenIncorrect         3556                       # Number of branches that were predicted not taken incorrectly (Count)
system.cpu.iew.branchMispredicts                 8007                       # Number of branch mispredicts detected at execute (Count)
system.cpu.iew.instsToCommit                226380451                       # Cumulative count of insts sent to commit (Count)
system.cpu.iew.writebackCount               226375168                       # Cumulative count of insts written-back (Count)
system.cpu.iew.producerInst                 152907752                       # Number of instructions producing a value (Count)
system.cpu.iew.consumerInst                 258673377                       # Number of instructions consuming a value (Count)
system.cpu.iew.wbRate                        2.354554                       # Insts written-back per cycle ((Count/Cycle))
system.cpu.iew.wbFanout                      0.591123                       # Average fanout of values written-back ((Count/Count))
system.cpu.interrupts.clk_domain.clock           8000                       # Clock period in ticks (Tick)
system.cpu.lsq0.forwLoads                     3591861                       # Number of loads that had data forwarded from stores (Count)
system.cpu.lsq0.squashedLoads                   40166                       # Number of loads squashed (Count)
system.cpu.lsq0.ignoredResponses                  141                       # Number of memory responses ignored because the instruction is squashed (Count)
system.cpu.lsq0.memOrderViolation                3401                       # Number of memory ordering violations (Count)
system.cpu.lsq0.squashedStores                  16084                       # Number of stores squashed (Count)
system.cpu.lsq0.rescheduledLoads                    0                       # Number of loads that were rescheduled (Count)
system.cpu.lsq0.blockedByCache                      0                       # Number of times an access to memory failed due to the cache being blocked (Count)
system.cpu.lsq0.loadToUse::samples           38725112                       # Distribution of cycle latency between the first time a load is issued and its completion (Unspecified)
system.cpu.lsq0.loadToUse::mean              3.099839                       # Distribution of cycle latency between the first time a load is issued and its completion (Unspecified)
system.cpu.lsq0.loadToUse::stdev             5.262496                       # Distribution of cycle latency between the first time a load is issued and its completion (Unspecified)
system.cpu.lsq0.loadToUse::0-9               38531480     99.50%     99.50% # Distribution of cycle latency between the first time a load is issued and its completion (Unspecified)
system.cpu.lsq0.loadToUse::10-19                88047      0.23%     99.73% # Distribution of cycle latency between the first time a load is issued and its completion (Unspecified)
system.cpu.lsq0.loadToUse::20-29                79604      0.21%     99.93% # Distribution of cycle latency between the first time a load is issued and its completion (Unspecified)
system.cpu.lsq0.loadToUse::30-39                  624      0.00%     99.93% # Distribution of cycle latency between the first time a load is issued and its completion (Unspecified)
system.cpu.lsq0.loadToUse::40-49                   15      0.00%     99.93% # Distribution of cycle latency between the first time a load is issued and its completion (Unspecified)
system.cpu.lsq0.loadToUse::50-59                   75      0.00%     99.93% # Distribution of cycle latency between the first time a load is issued and its completion (Unspecified)
system.cpu.lsq0.loadToUse::60-69                    5      0.00%     99.93% # Distribution of cycle latency between the first time a load is issued and its completion (Unspecified)
system.cpu.lsq0.loadToUse::70-79                   17      0.00%     99.93% # Distribution of cycle latency between the first time a load is issued and its completion (Unspecified)
system.cpu.lsq0.loadToUse::80-89                    4      0.00%     99.93% # Distribution of cycle latency between the first time a load is issued and its completion (Unspecified)
system.cpu.lsq0.loadToUse::90-99                    1      0.00%     99.93% # Distribution of cycle latency between the first time a load is issued and its completion (Unspecified)
system.cpu.lsq0.loadToUse::100-109                557      0.00%     99.94% # Distribution of cycle latency between the first time a load is issued and its completion (Unspecified)
system.cpu.lsq0.loadToUse::110-119               4236      0.01%     99.95% # Distribution of cycle latency between the first time a load is issued and its completion (Unspecified)
system.cpu.lsq0.loadToUse::120-129                 24      0.00%     99.95% # Distribution of cycle latency between the first time a load is issued and its completion (Unspecified)
system.cpu.lsq0.loadToUse::130-139               3563      0.01%     99.96% # Distribution of cycle latency between the first time a load is issued and its completion (Unspecified)
system.cpu.lsq0.loadToUse::140-149                504      0.00%     99.96% # Distribution of cycle latency between the first time a load is issued and its completion (Unspecified)
system.cpu.lsq0.loadToUse::150-159               2767      0.01%     99.96% # Distribution of cycle latency between the first time a load is issued and its completion (Unspecified)
system.cpu.lsq0.loadToUse::160-169               4117      0.01%     99.98% # Distribution of cycle latency between the first time a load is issued and its completion (Unspecified)
system.cpu.lsq0.loadToUse::170-179               1680      0.00%     99.98% # Distribution of cycle latency between the first time a load is issued and its completion (Unspecified)
system.cpu.lsq0.loadToUse::180-189               2667      0.01%     99.99% # Distribution of cycle latency between the first time a load is issued and its completion (Unspecified)
system.cpu.lsq0.loadToUse::190-199               1940      0.01%     99.99% # Distribution of cycle latency between the first time a load is issued and its completion (Unspecified)
system.cpu.lsq0.loadToUse::200-209                132      0.00%     99.99% # Distribution of cycle latency between the first time a load is issued and its completion (Unspecified)
system.cpu.lsq0.loadToUse::210-219                 24      0.00%     99.99% # Distribution of cycle latency between the first time a load is issued and its completion (Unspecified)
system.cpu.lsq0.loadToUse::220-229                 10      0.00%     99.99% # Distribution of cycle latency between the first time a load is issued and its completion (Unspecified)
system.cpu.lsq0.loadToUse::230-239                 22      0.00%     99.99% # Distribution of cycle latency between the first time a load is issued and its completion (Unspecified)
system.cpu.lsq0.loadToUse::240-249                 18      0.00%     99.99% # Distribution of cycle latency between the first time a load is issued and its completion (Unspecified)
system.cpu.lsq0.loadToUse::250-259                 18      0.00%     99.99% # Distribution of cycle latency between the first time a load is issued and its completion (Unspecified)
system.cpu.lsq0.loadToUse::260-269                 13      0.00%     99.99% # Distribution of cycle latency between the first time a load is issued and its completion (Unspecified)
system.cpu.lsq0.loadToUse::270-279                 21      0.00%     99.99% # Distribution of cycle latency between the first time a load is issued and its completion (Unspecified)
system.cpu.lsq0.loadToUse::280-289                 17      0.00%     99.99% # Distribution of cycle latency between the first time a load is issued and its completion (Unspecified)
system.cpu.lsq0.loadToUse::290-299                 92      0.00%     99.99% # Distribution of cycle latency between the first time a load is issued and its completion (Unspecified)
system.cpu.lsq0.loadToUse::overflows             2818      0.01%    100.00% # Distribution of cycle latency between the first time a load is issued and its completion (Unspecified)
system.cpu.lsq0.loadToUse::min_value                2                       # Distribution of cycle latency between the first time a load is issued and its completion (Unspecified)
system.cpu.lsq0.loadToUse::max_value             1151                       # Distribution of cycle latency between the first time a load is issued and its completion (Unspecified)
system.cpu.lsq0.loadToUse::total             38725112                       # Distribution of cycle latency between the first time a load is issued and its completion (Unspecified)
system.cpu.mmu.dtb.rdAccesses                38779072                       # TLB accesses on read requests (Count)
system.cpu.mmu.dtb.wrAccesses                12045285                       # TLB accesses on write requests (Count)
system.cpu.mmu.dtb.rdMisses                     22654                       # TLB misses on read requests (Count)
system.cpu.mmu.dtb.wrMisses                     11374                       # TLB misses on write requests (Count)
system.cpu.mmu.dtb.l2_tlb_Accesses              34028                       # L2 TLB look-ups (Count)
system.cpu.mmu.dtb.l2_tlb_Misses                  270                       # L2 TLB misses (Count)
system.cpu.mmu.dtb.PW_latency                  290017                       # PW latency (Count)
system.cpu.mmu.dtb.PW_number                      134                       # PW Number (Count)
system.cpu.mmu.dtb.PW_average_latency     2164.305970                       # PW Average Latency (Count)
system.cpu.mmu.dtb.L2TLB_l1_miss                  130                       # L1Cache Misses (L2 TLB Miss) (Count)
system.cpu.mmu.dtb.L2TLB_l1_hit                     4                       # L1Cache Hitts (L2 TLB Misses ) (Count)
system.cpu.mmu.dtb.L2TLB_l1_access                134                       # L1Cache Access (L2 TLB Miss) (Count)
system.cpu.mmu.dtb.L2TLB_l2_miss                  130                       # L2Cache Misses (L2 TLB Miss) (Count)
system.cpu.mmu.dtb.L2TLB_l2_hit                     4                       # L2Cache Hitts (L2 TLB Misses ) (Count)
system.cpu.mmu.dtb.L2TLB_l2_access                134                       # L2Cache Access (L2 TLB Miss) (Count)
system.cpu.mmu.dtb.L1TLB_l1_miss                 7090                       # L1Cache Misses (L2 TLB HIT) (Count)
system.cpu.mmu.dtb.L1TLB_l1_hit                 26668                       # L1Cache Hitts (L2 TLB HIT) (Count)
system.cpu.mmu.dtb.L1TLB_l1_access              33758                       # L1Cache Access (L2 TLB HIT) (Count)
system.cpu.mmu.dtb.L1TLB_l2_miss                 1531                       # L2Cache Misses (L2 TLB HIT) (Count)
system.cpu.mmu.dtb.L1TLB_l2_hit                 32227                       # L2Cache Hitts (L2 TLB HIT) (Count)
system.cpu.mmu.dtb.L1TLB_l2_access              33758                       # L2Cache Access (L2 TLB HIT) (Count)
system.cpu.mmu.dtb.walker.power_state.pwrStateResidencyTicks::UNDEFINED 9678824927500                       # Cumulative time (in ticks) in various power states (Tick)
system.cpu.mmu.itb.rdAccesses                       0                       # TLB accesses on read requests (Count)
system.cpu.mmu.itb.wrAccesses                14023385                       # TLB accesses on write requests (Count)
system.cpu.mmu.itb.rdMisses                         0                       # TLB misses on read requests (Count)
system.cpu.mmu.itb.wrMisses                         0                       # TLB misses on write requests (Count)
system.cpu.mmu.itb.l2_tlb_Accesses                  0                       # L2 TLB look-ups (Count)
system.cpu.mmu.itb.l2_tlb_Misses                    0                       # L2 TLB misses (Count)
system.cpu.mmu.itb.PW_latency                       0                       # PW latency (Count)
system.cpu.mmu.itb.PW_number                        0                       # PW Number (Count)
system.cpu.mmu.itb.PW_average_latency             nan                       # PW Average Latency (Count)
system.cpu.mmu.itb.L2TLB_l1_miss                    0                       # L1Cache Misses (L2 TLB Miss) (Count)
[...]
system.ruby.l2_cntrl0.L2cache.m_demand_misses       285844                       # Number of cache demand misses (Unspecified)
system.ruby.l2_cntrl0.L2cache.m_demand_accesses      1361763                       # Number of cache demand accesses (Unspecified)
system.ruby.l2_cntrl0.power_state.pwrStateResidencyTicks::UNDEFINED 11997222411500                       # Cumulative time (in ticks) in various power states (Tick)
system.ruby.l2_cntrl0.responseFromL2Cache.m_msg_count      3004271                       # Number of messages passed the buffer (Count)
system.ruby.l2_cntrl0.responseFromL2Cache.m_buf_msgs     0.045412                       # Average number of messages in buffer ((Count/Tick))
system.ruby.l2_cntrl0.responseToL2Cache.m_msg_count       576525                       # Number of messages passed the buffer (Count)
system.ruby.l2_cntrl0.responseToL2Cache.m_buf_msgs     0.005997                       # Average number of messages in buffer ((Count/Tick))
system.ruby.l2_cntrl0.unblockToL2Cache.m_msg_count      1356772                       # Number of messages passed the buffer (Count)
system.ruby.l2_cntrl0.unblockToL2Cache.m_buf_msgs     0.014112                       # Average number of messages in buffer ((Count/Tick))
system.ruby.memctrl_clk_domain.clock             1500                       # Clock period in ticks (Tick)
system.ruby.network.msg_count.Control         2244071                       (Unspecified)
system.ruby.network.msg_byte.Control         17952568                       (Unspecified)
system.ruby.network.msg_count.Request_Control         6850                       (Unspecified)
system.ruby.network.msg_byte.Request_Control        54800                       (Unspecified)
system.ruby.network.msg_count.Response_Data      2584499                       (Unspecified)
system.ruby.network.msg_byte.Response_Data    186083928                       (Unspecified)
system.ruby.network.msg_count.Response_Control      4072244                       (Unspecified)
system.ruby.network.msg_byte.Response_Control     32577952                       (Unspecified)
system.ruby.network.msg_count.Writeback_Data      1624552                       (Unspecified)
system.ruby.network.msg_byte.Writeback_Data    116967744                       (Unspecified)
system.ruby.network.msg_count.Writeback_Control       205995                       (Unspecified)
system.ruby.network.msg_byte.Writeback_Control      1647960                       (Unspecified)
system.ruby.network.power_state.pwrStateResidencyTicks::UNDEFINED 11997222411500                       # Cumulative time (in ticks) in various power states (Tick)
system.ruby.network.routers.percent_links_utilized     4.619200                       (Unspecified)
system.ruby.network.routers.msg_count.Control::0      2244071                       (Unspecified)
system.ruby.network.routers.msg_bytes.Control::0     17952568                       (Unspecified)
system.ruby.network.routers.msg_count.Request_Control::2         6850                       (Unspecified)
system.ruby.network.routers.msg_bytes.Request_Control::2        54800                       (Unspecified)
system.ruby.network.routers.msg_count.Response_Data::1      2584499                       (Unspecified)
system.ruby.network.routers.msg_bytes.Response_Data::1    186083928                       (Unspecified)
system.ruby.network.routers.msg_count.Response_Control::1      2240643                       (Unspecified)
system.ruby.network.routers.msg_count.Response_Control::2      1831601                       (Unspecified)
system.ruby.network.routers.msg_bytes.Response_Control::1     17925144                       (Unspecified)
system.ruby.network.routers.msg_bytes.Response_Control::2     14652808                       (Unspecified)
system.ruby.network.routers.msg_count.Writeback_Data::0      1624431                       (Unspecified)
system.ruby.network.routers.msg_count.Writeback_Data::1          121                       (Unspecified)
system.ruby.network.routers.msg_bytes.Writeback_Data::0    116959032                       (Unspecified)
system.ruby.network.routers.msg_bytes.Writeback_Data::1         8712                       (Unspecified)
system.ruby.network.routers.msg_count.Writeback_Control::0       205995                       (Unspecified)
system.ruby.network.routers.msg_bytes.Writeback_Control::0      1647960                       (Unspecified)
system.ruby.network.routers.port_buffers1.m_msg_count      2718427                       # Number of messages passed the buffer (Count)
system.ruby.network.routers.port_buffers1.m_buf_msgs     0.031402                       # Average number of messages in buffer ((Count/Tick))
system.ruby.network.routers.port_buffers1.m_stall_time    150312500                       # Total number of ticks messages were stalled in this buffer (Tick)
system.ruby.network.routers.port_buffers1.m_avg_stall_time    55.293925                       # Average stall ticks per message ((Tick/Count))
system.ruby.network.routers.port_buffers2.m_msg_count         4837                       # Number of messages passed the buffer (Count)
system.ruby.network.routers.port_buffers2.m_buf_msgs     0.000050                       # Average number of messages in buffer ((Count/Tick))
system.ruby.network.routers.port_buffers3.m_msg_count      2718427                       # Number of messages passed the buffer (Count)
system.ruby.network.routers.port_buffers3.m_buf_msgs     0.105854                       # Average number of messages in buffer ((Count/Tick))
system.ruby.network.routers.port_buffers3.m_stall_time   3729379000                       # Total number of ticks messages were stalled in this buffer (Tick)
system.ruby.network.routers.port_buffers3.m_avg_stall_time  1371.888596                       # Average stall ticks per message ((Tick/Count))
system.ruby.network.routers.port_buffers4.m_msg_count       576525                       # Number of messages passed the buffer (Count)
system.ruby.network.routers.port_buffers4.m_buf_msgs     0.005997                       # Average number of messages in buffer ((Count/Tick))
system.ruby.network.routers.port_buffers4.m_stall_time        28500                       # Total number of ticks messages were stalled in this buffer (Tick)
system.ruby.network.routers.port_buffers4.m_avg_stall_time     0.049434                       # Average stall ticks per message ((Tick/Count))
system.ruby.network.routers.port_buffers5.m_msg_count      1356772                       # Number of messages passed the buffer (Count)
system.ruby.network.routers.port_buffers5.m_buf_msgs     0.014121                       # Average number of messages in buffer ((Count/Tick))
system.ruby.network.routers.port_buffers5.m_stall_time       458500                       # Total number of ticks messages were stalled in this buffer (Tick)
system.ruby.network.routers.port_buffers5.m_avg_stall_time     0.337934                       # Average stall ticks per message ((Tick/Count))
system.ruby.network.routers.port_buffers6.m_msg_count       285844                       # Number of messages passed the buffer (Count)
system.ruby.network.routers.port_buffers6.m_buf_msgs     0.013716                       # Average number of messages in buffer ((Count/Tick))
system.ruby.network.routers.port_buffers6.m_stall_time    516429000                       # Total number of ticks messages were stalled in this buffer (Tick)
system.ruby.network.routers.port_buffers6.m_avg_stall_time  1806.681267                       # Average stall ticks per message ((Tick/Count))
system.ruby.network.routers.port_buffers7.m_msg_count       285844                       # Number of messages passed the buffer (Count)
system.ruby.network.routers.port_buffers7.m_buf_msgs     0.002983                       # Average number of messages in buffer ((Count/Tick))
system.ruby.network.routers.port_buffers7.m_stall_time       467500                       # Total number of ticks messages were stalled in this buffer (Tick)
system.ruby.network.routers.port_buffers7.m_avg_stall_time     1.635507                       # Average stall ticks per message ((Tick/Count))
system.ruby.network.routers.power_state.pwrStateResidencyTicks::UNDEFINED 11997222411500                       # Cumulative time (in ticks) in various power states (Tick)
system.ruby.network.routers.throttle00.acc_link_utilization 9195690.500000                       # Accumulated link utilization (Count)
system.ruby.network.routers.throttle00.link_utilization     9.564544                       # Average link utilization (Ratio)
system.ruby.network.routers.throttle00.total_msg_count      3676621                       # Total number of messages forwarded by this switch (Count)
system.ruby.network.routers.throttle00.total_msg_bytes    147131048                       # Total number of bytes forwarded by this switch (Byte)
system.ruby.network.routers.throttle00.total_data_msg_bytes    117718080                       # Total number of data bytes forwarded by this switch (Byte)
system.ruby.network.routers.throttle00.total_msg_wait_time    201823000                       # Total time spend forwarding messages (Tick)
system.ruby.network.routers.throttle00.total_stall_cy            0                       # Total time spent blocked on any output link (Cycle)
system.ruby.network.routers.throttle00.total_bw_sat_cy      7358492                       # Total time bandwidth was saturated on any output link (Cycle)
system.ruby.network.routers.throttle00.avg_msg_wait_time    54.893610                       # Average time a message took to be forwarded (Ratio)
system.ruby.network.routers.throttle00.avg_bandwidth         2.85                       # Average bandwidth (GB/s) (Ratio)
system.ruby.network.routers.throttle00.avg_useful_bandwidth         2.28                       # Average usefull (only data) bandwidth (GB/s) (Ratio)
system.ruby.network.routers.throttle00.msg_count.Request_Control::2         6850                       (Unspecified)
system.ruby.network.routers.throttle00.msg_bytes.Request_Control::2        54800                       (Unspecified)
system.ruby.network.routers.throttle00.msg_count.Response_Data::1      1839345                       (Unspecified)
system.ruby.network.routers.throttle00.msg_bytes.Response_Data::1    132432840                       (Unspecified)
system.ruby.network.routers.throttle00.msg_count.Response_Control::1      1830426                       (Unspecified)
system.ruby.network.routers.throttle00.msg_bytes.Response_Control::1     14643408                       (Unspecified)
system.ruby.network.routers.throttle01.acc_link_utilization     11259565                       # Accumulated link utilization (Count)
system.ruby.network.routers.throttle01.link_utilization    11.711204                       # Average link utilization (Ratio)
system.ruby.network.routers.throttle01.total_msg_count      6284906                       # Total number of messages forwarded by this switch (Count)
system.ruby.network.routers.throttle01.total_msg_bytes    180153040                       # Total number of bytes forwarded by this switch (Byte)
system.ruby.network.routers.throttle01.total_data_msg_bytes    129873792                       # Total number of data bytes forwarded by this switch (Byte)
system.ruby.network.routers.throttle01.total_msg_wait_time   5008776500                       # Total time spend forwarding messages (Tick)
system.ruby.network.routers.throttle01.total_stall_cy            0                       # Total time spent blocked on any output link (Cycle)
system.ruby.network.routers.throttle01.total_bw_sat_cy      8414473                       # Total time bandwidth was saturated on any output link (Cycle)
system.ruby.network.routers.throttle01.avg_msg_wait_time   796.953288                       # Average time a message took to be forwarded (Ratio)
system.ruby.network.routers.throttle01.avg_bandwidth         3.49                       # Average bandwidth (GB/s) (Ratio)
system.ruby.network.routers.throttle01.avg_useful_bandwidth         2.52                       # Average usefull (only data) bandwidth (GB/s) (Ratio)
system.ruby.network.routers.throttle01.msg_count.Control::0      1839345                       (Unspecified)
system.ruby.network.routers.throttle01.msg_bytes.Control::0     14714760                       (Unspecified)
system.ruby.network.routers.throttle01.msg_count.Response_Data::1       404726                       (Unspecified)
system.ruby.network.routers.throttle01.msg_bytes.Response_Data::1     29140272                       (Unspecified)
system.ruby.network.routers.throttle01.msg_count.Response_Control::1       378687                       (Unspecified)
system.ruby.network.routers.throttle01.msg_count.Response_Control::2      1831601                       (Unspecified)
system.ruby.network.routers.throttle01.msg_bytes.Response_Control::1      3029496                       (Unspecified)
system.ruby.network.routers.throttle01.msg_bytes.Response_Control::2     14652808                       (Unspecified)
system.ruby.network.routers.throttle01.msg_count.Writeback_Data::0      1624431                       (Unspecified)
system.ruby.network.routers.throttle01.msg_count.Writeback_Data::1          121                       (Unspecified)
system.ruby.network.routers.throttle01.msg_bytes.Writeback_Data::0    116959032                       (Unspecified)
system.ruby.network.routers.throttle01.msg_bytes.Writeback_Data::1         8712                       (Unspecified)
system.ruby.network.routers.throttle01.msg_count.Writeback_Control::0       205995                       (Unspecified)
system.ruby.network.routers.throttle01.msg_bytes.Writeback_Control::0      1647960                       (Unspecified)
system.ruby.network.routers.throttle02.acc_link_utilization      1750054                       # Accumulated link utilization (Count)
system.ruby.network.routers.throttle02.link_utilization     1.820251                       # Average link utilization (Ratio)
system.ruby.network.routers.throttle02.total_msg_count       776684                       # Total number of messages forwarded by this switch (Count)
system.ruby.network.routers.throttle02.total_msg_bytes     28000864                       # Total number of bytes forwarded by this switch (Byte)
system.ruby.network.routers.throttle02.total_data_msg_bytes     21787392                       # Total number of data bytes forwarded by this switch (Byte)
system.ruby.network.routers.throttle02.total_msg_wait_time    669349000                       # Total time spend forwarding messages (Tick)
system.ruby.network.routers.throttle02.total_stall_cy            0                       # Total time spent blocked on any output link (Cycle)
system.ruby.network.routers.throttle02.total_bw_sat_cy      1362267                       # Total time bandwidth was saturated on any output link (Cycle)
system.ruby.network.routers.throttle02.avg_msg_wait_time   861.803513                       # Average time a message took to be forwarded (Ratio)
system.ruby.network.routers.throttle02.avg_bandwidth         0.54                       # Average bandwidth (GB/s) (Ratio)
system.ruby.network.routers.throttle02.avg_useful_bandwidth         0.42                       # Average usefull (only data) bandwidth (GB/s) (Ratio)
system.ruby.network.routers.throttle02.msg_count.Control::0       404726                       (Unspecified)
system.ruby.network.routers.throttle02.msg_bytes.Control::0      3237808                       (Unspecified)
system.ruby.network.routers.throttle02.msg_count.Response_Data::1       340428                       (Unspecified)
system.ruby.network.routers.throttle02.msg_bytes.Response_Data::1     24510816                       (Unspecified)
system.ruby.network.routers.throttle02.msg_count.Response_Control::1        31530                       (Unspecified)
system.ruby.network.routers.throttle02.msg_bytes.Response_Control::1       252240                       (Unspecified)
system.ruby.network.routers.throttle03.acc_link_utilization            0                       # Accumulated link utilization (Count)
system.ruby.network.routers.throttle03.link_utilization            0                       # Average link utilization (Ratio)
system.ruby.network.routers.throttle03.total_msg_count            0                       # Total number of messages forwarded by this switch (Count)
system.ruby.network.routers.throttle03.total_msg_bytes            0                       # Total number of bytes forwarded by this switch (Byte)
system.ruby.network.routers.throttle03.total_data_msg_bytes            0                       # Total number of data bytes forwarded by this switch (Byte)
system.ruby.network.routers.throttle03.total_msg_wait_time            0                       # Total time spend forwarding messages (Tick)
system.ruby.network.routers.throttle03.total_stall_cy            0                       # Total time spent blocked on any output link (Cycle)
system.ruby.network.routers.throttle03.total_bw_sat_cy            0                       # Total time bandwidth was saturated on any output link (Cycle)
system.ruby.network.routers.throttle03.avg_msg_wait_time          nan                       # Average time a message took to be forwarded (Ratio)
system.ruby.network.routers.throttle03.avg_bandwidth         0.00                       # Average bandwidth (GB/s) (Ratio)
system.ruby.network.routers.throttle03.avg_useful_bandwidth         0.00                       # Average usefull (only data) bandwidth (GB/s) (Ratio)
system.ruby.network.routers.throttle04.acc_link_utilization            0                       # Accumulated link utilization (Count)
system.ruby.network.routers.throttle04.link_utilization            0                       # Average link utilization (Ratio)
system.ruby.network.routers.throttle04.total_msg_count            0                       # Total number of messages forwarded by this switch (Count)
system.ruby.network.routers.throttle04.total_msg_bytes            0                       # Total number of bytes forwarded by this switch (Byte)
system.ruby.network.routers.throttle04.total_data_msg_bytes            0                       # Total number of data bytes forwarded by this switch (Byte)
system.ruby.network.routers.throttle04.total_msg_wait_time            0                       # Total time spend forwarding messages (Tick)
system.ruby.network.routers.throttle04.total_stall_cy            0                       # Total time spent blocked on any output link (Cycle)
system.ruby.network.routers.throttle04.total_bw_sat_cy            0                       # Total time bandwidth was saturated on any output link (Cycle)
system.ruby.network.routers.throttle04.avg_msg_wait_time          nan                       # Average time a message took to be forwarded (Ratio)
system.ruby.network.routers.throttle04.avg_bandwidth         0.00                       # Average bandwidth (GB/s) (Ratio)
system.ruby.network.routers.throttle04.avg_useful_bandwidth         0.00                       # Average usefull (only data) bandwidth (GB/s) (Ratio)
system.ruby.power_state.pwrStateResidencyTicks::UNDEFINED 11997222411500                       # Cumulative time (in ticks) in various power states (Tick)
system.sys_port_proxy.power_state.pwrStateResidencyTicks::UNDEFINED 11997222411500                       # Cumulative time (in ticks) in various power states (Tick)
system.voltage_domain.voltage                       1                       # Voltage in Volts (Volt)
system.workload.inst.arm                            0                       # number of arm instructions executed (Count)
system.workload.inst.quiesce                        0                       # number of quiesce instructions executed (Count)

---------- End Simulation Statistics   ----------
